#\#CIF1.1
##########################################################################
#               Crystallographic Information Format file 
#               Produced by PyCifRW module
# 
#  This is a CIF file.  CIF has been adopted by the International
#  Union of Crystallography as the standard for data archiving and 
#  transmission.
#
#  For information on this file format, follow the CIF links at
#  http://www.iucr.org
##########################################################################

data_CaF2
_symmetry_space_group_name_H-M          'P 1'
_cell_length_a                          3.89369948536
_cell_length_b                          3.89369948536
_cell_length_c                          3.89369948536
_cell_angle_alpha                       60.0
_cell_angle_beta                        60.0
_cell_angle_gamma                       60.0
_chemical_name_systematic               'Generated by pymatgen'
_symmetry_Int_Tables_number             1
_chemical_formula_structural            CaF2
_chemical_formula_sum                   'Ca1 F2'
_cell_volume                            41.741907507
_cell_formula_units_Z                   1
loop_
  _symmetry_equiv_pos_site_id
  _symmetry_equiv_pos_as_xyz
   1  'x, y, z'
 
loop_
  _atom_site_type_symbol
  _atom_site_symmetry_multiplicity
  _atom_site_fract_x
  _atom_site_fract_y
  _atom_site_fract_z
  _atom_site_attached_hydrogens
  _atom_site_B_iso_or_equiv
  _atom_site_label
  _atom_site_occupancy
   Ca  1  0.0  0.0  0.0  0  .  Ca1  1
   F  1  0.25  0.25  0.25  0  .  F2  1
   F  1  0.75  0.75  0.75  0  .  F3  1
 
